% Case saved by PowerWorld Simulator, version 22, build date July 1, 2021
% Case Information Header = 2 lines
% This is a synthetic power system model that does NOT represent the actual grid. It was developed as part of the US ARPA-E Grid 
% Data research project and contains no CEII.
function mpc = case_ACTIVSg2000_mod
mpc.version = '2';
mpc.baseMVA =  100.00;

%% bus data 
mpc.bus = [
1001	1	20.78	5.89	0.00	0.00	1	0.9832667	-22.253016	115.00	9	1.100	0.900
1002	1	15.41	4.37	0.00	0.00	1	1.0228984	-17.735851	115.00	9	1.100	0.900
1003	1	0.00	0.00	0.00	0.00	1	1.0129199	-16.626587	115.00	9	1.100	0.900
1004	2	0.00	0.00	0.00	0.00	1	1.0173914	-18.464563	230.00	9	1.100	0.900
1005	1	0.00	0.00	0.00	0.00	1	1.0100656	-15.705904	115.00	9	1.100	0.900
1006	2	0.00	0.00	0.00	0.00	1	1.0036551	-13.549875	13.80	9	1.100	0.900
1007	1	7.01	1.99	0.00	0.21	1	1.0300000	-18.106391	115.00	9	1.100	0.900
1008	1	0.00	0.00	0.00	0.00	1	1.0242101	-8.353372	115.00	9	1.100	0.900
1009	2	0.00	0.00	0.00	0.00	1	1.0142309	-5.089783	13.80	9	1.100	0.900
1010	1	0.00	0.00	0.00	-2.17	1	1.0300000	-16.463019	115.00	9	1.100	0.900
1011	2	0.00	0.00	0.00	0.00	1	1.0302185	-14.714967	22.00	9	1.100	0.900
1012	1	2.98	0.85	0.00	9.50	1	1.0168479	-24.905854	115.00	9	1.100	0.900
1013	1	29.23	8.28	0.00	0.00	1	1.0088944	-15.043806	115.00	9	1.100	0.900
1014	1	2.22	0.63	0.00	0.00	1	1.0154630	-11.562278	115.00	9	1.100	0.900
1015	1	7.51	2.13	0.00	0.00	1	1.0319466	-17.859316	115.00	9	1.100	0.900
1016	1	2.89	0.82	0.00	30.00	1	1.0189049	-15.102345	115.00	9	1.100	0.900
1017	1	18.34	5.20	0.00	0.00	1	0.9855003	-20.974107	115.00	9	1.100	0.900
1018	1	0.07	0.02	0.00	0.00	1	0.9934957	-19.748491	115.00	9	1.100	0.900
1019	1	61.78	17.50	0.00	142.98	1	1.0034309	-21.843229	115.00	9	1.100	0.900
1020	1	0.00	0.00	0.00	76.73	1	1.0257677	-14.859491	115.00	9	1.100	0.900
1021	2	0.00	0.00	0.00	0.00	1	1.0014725	-8.273077	13.80	9	1.100	0.900
1022	1	0.00	0.00	0.00	0.00	1	1.0156720	-15.744870	115.00	9	1.100	0.900
1023	2	0.00	0.00	0.00	0.00	1	1.0100000	-6.860783	13.80	9	1.100	0.900
1024	1	63.04	17.86	0.00	0.00	1	0.9956605	-18.733173	115.00	9	1.100	0.900
1025	1	0.00	0.00	0.00	0.00	1	1.0210353	-13.803675	115.00	9	1.100	0.900
1026	2	0.00	0.00	0.00	0.00	1	1.0000000	-4.313094	13.80	9	1.100	0.900
1027	1	101.21	28.68	0.00	75.00	1	1.0137162	-25.358504	115.00	9	1.100	0.900
1028	1	10.01	2.84	0.00	0.00	1	1.0190117	-17.249636	115.00	9	1.100	0.900
1029	1	83.18	23.57	0.00	40.00	1	1.0100495	-24.411186	115.00	9	1.100	0.900
1030	1	24.63	6.98	0.00	0.00	1	1.0182147	-13.096155	115.00	9	1.100	0.900
1031	1	9.25	2.62	0.00	0.00	1	1.0188381	-17.291036	115.00	9	1.100	0.900
1032	1	0.00	0.00	0.00	0.00	1	1.0064653	-11.997214	115.00	9	1.100	0.900
1033	2	0.00	0.00	0.00	50.00	1	1.0259117	-16.552632	230.00	9	1.100	0.900
1034	1	0.00	0.00	0.00	0.00	1	1.0064622	-13.934197	115.00	9	1.100	0.900
1035	2	0.00	0.00	0.00	0.00	1	1.0000000	-10.644914	13.80	9	1.100	0.900
1036	1	13.60	3.85	0.00	0.00	1	1.0005443	-12.202362	115.00	9	1.100	0.900
1037	1	102.24	28.97	0.00	0.00	1	0.9782618	-22.074145	115.00	9	1.100	0.900
1038	1	0.00	0.00	0.00	0.00	1	1.0200185	-7.360542	115.00	9	1.100	0.900
1039	2	0.00	0.00	0.00	0.00	1	1.0000000	-1.990689	22.00	9	1.100	0.900
1040	1	44.36	12.57	0.00	0.00	1	0.9955923	-20.006270	115.00	9	1.100	0.900
1041	1	0.00	0.00	0.00	0.00	1	1.0049004	-14.727338	115.00	9	1.100	0.900
1042	2	0.00	0.00	0.00	0.00	1	1.0049004	-14.727338	13.80	9	1.100	0.900
1043	2	0.00	0.00	0.00	0.00	1	1.0000000	-11.489940	13.80	9	1.100	0.900
1044	1	14.68	4.16	0.00	0.00	1	1.0150988	-25.483905	115.00	9	1.100	0.900
1045	1	98.56	27.93	0.00	0.00	1	0.9821759	-23.960378	115.00	9	1.100	0.900
1046	1	11.09	3.14	0.00	12.00	1	1.0281042	-22.098559	115.00	9	1.100	0.900
1047	1	0.00	0.00	0.00	0.00	1	1.0078410	-12.963800	115.00	9	1.100	0.900
1048	2	0.00	0.00	0.00	0.00	1	1.0078410	-12.963800	18.00	9	1.100	0.900
1049	2	0.00	0.00	0.00	0.00	1	1.0078410	-12.963800	18.00	9	1.100	0.900
1050	2	0.00	0.00	0.00	0.00	1	1.0000000	-7.906952	18.00	9	1.100	0.900
1051	2	0.00	0.00	0.00	0.00	1	1.0000000	-6.431575	18.00	9	1.100	0.900
1052	2	0.00	0.00	0.00	0.00	1	1.0002094	-8.753824	18.00	9	1.100	0.900
1053	2	0.00	0.00	0.00	0.00	1	1.0255300	-16.943372	230.00	9	1.100	0.900
1054	1	14.99	4.25	0.00	0.00	1	1.0125118	-21.891629	115.00	9	1.100	0.900
1055	1	3.98	1.13	0.00	0.00	1	1.0056235	-17.673119	115.00	9	1.100	0.900
1056	1	0.00	0.00	0.00	72.83	1	1.0300000	-21.441659	115.00	9	1.100	0.900
1057	2	0.00	0.00	0.00	0.00	1	1.0300000	-21.441659	18.00	9	1.100	0.900
1058	1	13.46	3.81	0.00	0.00	1	1.0257405	-10.962149	115.00	9	1.100	0.900
1059	2	0.00	0.00	0.00	0.00	1	1.0257405	-10.962149	22.00	9	1.100	0.900
1060	2	0.00	0.00	0.00	0.00	1	1.0257405	-10.962149	22.00	9	1.100	0.900
1061	1	0.00	0.00	0.00	0.00	1	1.0118553	-16.846230	115.00	9	1.100	0.900
1062	2	0.00	0.00	0.00	0.00	1	1.0118553	-16.846230	13.80	9	1.100	0.900
1063	2	0.00	0.00	0.00	0.00	1	1.0118553	-16.846230	13.80	9	1.100	0.900
1064	1	123.76	35.07	0.00	0.00	1	0.9761906	-23.662780	115.00	9	1.100	0.900
1065	1	0.00	0.00	0.00	0.00	1	1.0078291	-14.561803	115.00	9	1.100	0.900
1066	2	0.00	0.00	0.00	0.00	1	1.0000000	-7.046639	13.80	9	1.100	0.900
1067	1	101.55	28.77	0.00	0.00	1	1.0017997	-15.296598	115.00	9	1.100	0.900
1068	1	59.40	16.83	0.00	0.00	1	0.9876054	-16.060096	115.00	9	1.100	0.900
1069	1	0.00	0.00	0.00	0.00	1	1.0271970	-8.479444	115.00	9	1.100	0.900
1070	2	0.00	0.00	0.00	0.00	1	1.0400000	-3.985001	13.80	9	1.100	0.900
1071	1	91.46	25.91	0.00	0.00	1	0.9905928	-20.999296	115.00	9	1.100	0.900
1072	2	0.00	0.00	0.00	0.00	1	1.0100000	-11.656298	18.00	9	1.100	0.900
1073	2	0.00	0.00	0.00	0.00	1	1.0100000	-5.257797	18.00	9	1.100	0.900
1074	2	0.00	0.00	0.00	0.00	1	1.0100000	-7.303666	18.00	9	1.100	0.900
1075	2	0.00	0.00	0.00	0.00	1	1.0100000	-10.062794	18.00	9	1.100	0.900
1076	2	0.00	0.00	0.00	0.00	1	0.9905928	-20.999296	18.00	9	1.100	0.900
1077	2	0.00	0.00	0.00	0.00	1	0.9905928	-20.999296	18.00	9	1.100	0.900
1078	2	0.00	0.00	0.00	0.00	1	1.0100000	-10.582066	18.00	9	1.100	0.900
1079	2	0.00	0.00	0.00	0.00	1	1.0196781	-37.951062	500.00	9	1.100	0.900
1080	2	0.00	0.00	0.00	0.00	1	1.0100000	-10.001528	18.00	9	1.100	0.900
1081	2	0.00	0.00	0.00	81.41	1	1.0300000	-18.294278	230.00	9	1.100	0.900
1082	2	0.00	0.00	0.00	0.00	1	1.0232725	-5.651873	115.00	9	1.100	0.900
1083	1	39.95	11.32	0.00	26.15	1	1.0225634	-9.581374	115.00	9	1.100	0.900
1084	2	0.00	0.00	0.00	0.00	1	1.0280699	-16.076912	115.00	9	1.100	0.900
1085	1	21.30	6.03	0.00	0.00	1	1.0109938	-14.926390	115.00	9	1.100	0.900
1086	1	39.67	11.24	0.00	30.00	1	1.0180352	-17.167092	115.00	9	1.100	0.900
1087	1	0.91	0.26	0.00	14.06	1	1.0300000	-15.833281	115.00	9	1.100	0.900
1088	2	0.00	0.00	0.00	0.00	1	1.0000000	-11.514553	115.00	9	1.100	0.900
1089	1	40.60	11.50	0.00	0.00	1	0.9866571	-20.855710	115.00	9	1.100	0.900
1090	2	0.00	0.00	0.00	0.00	1	1.0200000	-15.675117	115.00	9	1.100	0.900
1091	1	11.62	3.29	0.00	0.00	1	1.0327089	-30.428517	161.00	9	1.100	0.900
2001	1	48.36	13.70	0.00	0.00	2	1.0028281	-59.225808	161.00	11	1.100	0.900
2002	1	0.00	0.00	0.00	0.00	2	1.0127470	-60.812097	500.00	11	1.100	0.900
2003	1	0.00	0.00	0.00	0.00	2	1.0114393	-63.066361	161.00	11	1.100	0.900
2004	2	0.00	0.00	0.00	0.00	2	1.0127470	-60.812097	13.80	11	1.100	0.900
2005	2	0.00	0.00	0.00	0.00	2	1.0127470	-60.812097	13.80	11	1.100	0.900
2006	2	0.00	0.00	0.00	0.00	2	1.0127470	-60.812097	13.80	11	1.100	0.900
2007	1	9.54	2.70	0.00	0.00	2	1.0036978	-58.996518	161.00	11	1.100	0.900
2008	1	8.06	2.28	0.00	0.00	2	1.0195597	-32.157945	161.00	10	1.100	0.900
2009	1	39.13	11.09	0.00	120.00	2	1.0240310	-44.549133	161.00	11	1.100	0.900
2010	1	56.81	16.09	0.00	30.18	2	1.0300000	-35.821910	161.00	10	1.100	0.900
2011	1	0.00	0.00	0.00	0.00	2	1.0391536	-31.399972	500.00	10	1.100	0.900
2012	1	0.00	0.00	0.00	0.00	2	1.0281379	-29.174022	161.00	10	1.100	0.900
2013	2	0.00	0.00	0.00	0.00	2	1.0307963	-29.061311	18.00	10	1.100	0.900
2014	1	25.43	7.20	0.00	0.00	2	1.0192695	-32.747307	161.00	10	1.100	0.900
2015	1	4.69	1.33	0.00	0.00	2	1.0119189	-62.571109	161.00	11	1.100	0.900
2016	1	69.27	19.63	0.00	0.00	2	1.0110321	-69.185902	161.00	11	1.100	0.900
2017	1	0.00	0.00	0.00	-200.00	2	1.0309398	-31.563656	500.00	10	1.100	0.900
2018	1	0.00	0.00	0.00	0.00	2	1.0285196	-30.774295	161.00	10	1.100	0.900
2019	2	0.00	0.00	0.00	0.00	2	1.0309398	-31.563656	20.00	10	1.100	0.900
2020	1	47.97	13.59	0.00	0.00	2	0.9971105	-44.197487	161.00	11	1.100	0.900
2021	1	0.00	0.00	0.00	0.00	2	1.0147830	-55.952868	500.00	11	1.100	0.900
2022	1	11.56	3.28	0.00	0.00	2	1.0110356	-57.883816	161.00	11	1.100	0.900
2023	2	0.00	0.00	0.00	0.00	2	1.0200000	-54.390612	13.80	11	1.100	0.900
2024	2	0.00	0.00	0.00	0.00	2	1.0200000	-53.725802	13.80	11	1.100	0.900
2025	1	39.62	11.23	0.00	0.00	2	0.9956978	-43.434571	161.00	11	1.100	0.900
2026	1	18.57	5.26	0.00	0.00	2	1.0269560	-30.380559	161.00	10	1.100	0.900
2027	1	3.56	1.01	0.00	0.00	2	1.0033161	-59.655953	161.00	11	1.100	0.900
2028	1	14.24	4.03	0.00	0.00	2	0.9973535	-46.564283	161.00	11	1.100	0.900
2029	1	3.20	0.91	0.00	0.00	2	1.0258440	-32.140594	161.00	10	1.100	0.900
2030	1	47.15	13.36	0.00	0.00	2	0.9899957	-63.275105	161.00	11	1.100	0.900
2031	1	5.77	1.63	0.00	0.00	2	1.0274554	-29.095268	161.00	10	1.100	0.900
2032	1	3.35	0.95	0.00	0.00	2	1.0056724	-58.392861	161.00	11	1.100	0.900
2033	1	13.57	3.85	0.00	0.00	2	0.9926487	-64.783579	161.00	11	1.100	0.900
2034	1	5.34	1.51	0.00	0.00	2	1.0087715	-68.509486	161.00	11	1.100	0.900
2035	1	4.68	1.33	0.00	0.00	2	1.0224978	-30.028112	161.00	10	1.100	0.900
2036	1	41.59	11.78	0.00	0.00	2	1.0010676	-43.798514	161.00	11	1.100	0.900
2037	1	3.50	0.99	0.00	0.00	2	1.0231688	-62.912417	161.00	11	1.100	0.900
2038	1	2.60	0.74	0.00	0.00	2	1.0083970	-63.537539	161.00	11	1.100	0.900
2039	1	5.56	1.58	0.00	0.00	2	0.9953510	-59.945601	161.00	11	1.100	0.900
2040	1	15.90	4.51	0.00	0.00	2	1.0085049	-58.553130	161.00	11	1.100	0.900
2041	1	0.00	0.00	0.00	0.00	2	1.0289937	-26.994467	161.00	10	1.100	0.900
2042	2	0.00	0.00	0.00	0.00	2	1.0204105	-24.424116	18.00	10	1.100	0.900
2043	1	4.24	1.20	0.00	0.00	2	1.0095573	-68.818008	161.00	11	1.100	0.900
2044	1	27.40	7.76	0.00	0.00	2	1.0180229	-64.638888	161.00	11	1.100	0.900
2045	1	22.60	6.41	0.00	0.00	2	0.9965546	-44.736701	161.00	11	1.100	0.900
2046	1	22.13	6.27	0.00	0.00	2	1.0083224	-68.121224	161.00	11	1.100	0.900
2047	1	14.96	4.24	0.00	0.00	2	1.0102286	-63.965321	161.00	11	1.100	0.900
2048	1	6.42	1.82	0.00	0.00	2	1.0316809	-31.140442	161.00	10	1.100	0.900
2049	1	11.57	3.28	0.00	0.00	2	1.0212054	-40.286959	161.00	10	1.100	0.900
2050	1	3.66	1.04	0.00	0.00	2	0.9955949	-62.472184	161.00	11	1.100	0.900
2051	1	17.85	5.06	0.00	0.00	2	0.9932835	-53.445001	161.00	11	1.100	0.900
2052	1	24.84	7.04	0.00	0.00	2	1.0197314	-31.277933	161.00	10	1.100	0.900
2053	1	29.13	8.25	0.00	0.00	2	0.9935701	-58.625215	161.00	11	1.100	0.900
2054	1	0.00	0.00	0.00	0.00	2	0.9992285	-42.445365	500.00	11	1.100	0.900
2055	1	49.62	14.06	0.00	0.00	2	0.9990353	-43.272871	161.00	11	1.100	0.900
2056	2	0.00	0.00	0.00	0.00	2	0.9992285	-42.445365	18.00	11	1.100	0.900
2057	2	0.00	0.00	0.00	0.00	2	0.9900000	-38.044154	18.00	11	1.100	0.900
2058	1	0.00	0.00	0.00	0.00	2	1.0292498	-26.566368	161.00	10	1.100	0.900
2059	2	0.00	0.00	0.00	0.00	2	1.0192638	-23.225910	13.80	10	1.100	0.900
2060	1	3.80	1.08	0.00	0.00	2	0.9987280	-61.190806	161.00	11	1.100	0.900
2061	1	0.00	0.00	0.00	0.00	2	1.0241756	-36.772167	161.00	10	1.100	0.900
2062	2	0.00	0.00	0.00	0.00	2	1.0200000	-34.475534	18.00	10	1.100	0.900
2063	1	65.62	18.59	0.00	40.00	2	1.0094218	-67.483497	161.00	11	1.100	0.900
2064	1	10.05	2.85	0.00	0.00	2	1.0042733	-59.520726	161.00	11	1.100	0.900
2065	1	78.36	22.20	0.00	100.00	2	1.0265950	-64.871078	161.00	11	1.100	0.900
2066	1	7.11	2.02	0.00	0.00	2	1.0205417	-27.117121	161.00	10	1.100	0.900
2067	1	53.97	15.29	0.00	0.00	2	0.9938664	-43.356977	161.00	11	1.100	0.900
2068	1	5.76	1.63	0.00	0.00	2	1.0000061	-41.324975	161.00	11	1.100	0.900
2069	1	21.92	6.21	0.00	120.00	2	1.0256542	-68.365225	161.00	11	1.100	0.900
2070	1	0.00	0.00	0.00	0.00	2	1.0020071	-40.906579	161.00	11	1.100	0.900
2071	2	0.00	0.00	0.00	0.00	2	1.0000000	-37.230374	18.00	11	1.100	0.900
2072	1	9.70	2.75	0.00	0.00	2	1.0193054	-66.488264	161.00	11	1.100	0.900
2073	1	0.00	0.00	0.00	0.00	2	1.0206673	-24.611252	161.00	10	1.100	0.900
2074	1	0.00	0.00	0.00	0.00	2	1.0103579	-22.759054	115.00	10	1.100	0.900
2075	1	0.00	0.00	0.00	0.00	2	1.0103579	-22.759054	115.00	10	1.100	0.900
2076	2	0.00	0.00	0.00	0.00	2	1.0259055	-23.713646	24.00	10	1.100	0.900
2077	1	0.00	0.00	0.00	0.00	2	1.0234286	-60.497389	161.00	11	1.100	0.900
2078	2	0.00	0.00	0.00	0.00	2	1.0200000	-57.183956	13.80	11	1.100	0.900
2079	1	4.48	1.27	0.00	0.00	2	1.0314997	-34.048867	161.00	10	1.100	0.900
2080	1	16.93	4.80	0.00	0.00	2	0.9988695	-56.796175	161.00	11	1.100	0.900
2081	1	4.46	1.26	0.00	0.00	2	1.0029366	-64.341247	161.00	11	1.100	0.900
2082	1	59.03	16.73	0.00	0.00	2	1.0054557	-44.145787	161.00	11	1.100	0.900
2083	2	0.00	0.00	0.00	0.00	2	1.0200000	-42.573828	20.00	11	1.100	0.900
2084	2	0.00	0.00	0.00	0.00	2	1.0054557	-44.145787	20.00	11	1.100	0.900
2085	2	0.00	0.00	0.00	0.00	2	1.0054557	-44.145787	20.00	11	1.100	0.900
2086	1	2.19	0.62	0.00	0.00	2	0.9966078	-58.757360	161.00	11	1.100	0.900
2087	1	7.90	2.24	0.00	0.00	2	1.0234415	-26.952846	161.00	10	1.100	0.900
2088	1	0.00	0.00	0.00	0.00	2	1.0010137	-41.024921	161.00	11	1.100	0.900
2089	2	0.00	0.00	0.00	0.00	2	1.0000000	-37.424289	24.00	11	1.100	0.900
2090	1	2.42	0.69	0.00	0.00	2	1.0037173	-60.275103	161.00	11	1.100	0.900
2091	1	17.05	4.83	0.00	0.00	2	1.0249966	-33.414475	161.00	10	1.100	0.900
2092	1	24.11	6.83	0.00	0.00	2	1.0082498	-65.799065	161.00	11	1.100	0.900
2093	1	0.00	0.00	0.00	0.00	2	1.0287743	-29.932552	161.00	10	1.100	0.900
2094	2	0.00	0.00	0.00	0.00	2	1.0287743	-29.932552	13.80	10	1.100	0.900
2095	2	0.00	0.00	0.00	0.00	2	1.0287743	-29.932552	13.80	10	1.100	0.900
2096	1	0.00	0.00	0.00	-68.48	2	1.0300000	-27.263782	500.00	10	1.100	0.900
2097	1	0.00	0.00	0.00	0.00	2	1.0286652	-26.716825	230.00	10	1.100	0.900
2098	1	0.00	0.00	0.00	0.00	2	1.0337702	-29.842723	161.00	10	1.100	0.900
2099	2	0.00	0.00	0.00	0.00	2	1.0295324	-27.122648	18.00	10	1.100	0.900
2100	2	0.00	0.00	0.00	0.00	2	1.0208001	-24.657781	18.00	10	1.100	0.900
2101	1	0.00	0.00	0.00	0.00	2	1.0123859	-61.916765	500.00	11	1.100	0.900
2102	1	0.00	0.00	0.00	0.00	2	1.0131781	-63.360536	161.00	11	1.100	0.900
2103	2	0.00	0.00	0.00	0.00	2	1.0123859	-61.916765	20.00	11	1.100	0.900
2104	2	0.00	0.00	0.00	0.00	2	1.0123859	-61.916765	20.00	11	1.100	0.900
2105	2	0.00	0.00	0.00	0.00	2	1.0123859	-61.916765	20.00	11	1.100	0.900
2106	1	14.40	4.08	0.00	0.00	2	0.9910951	-65.428393	161.00	11	1.100	0.900
2107	1	74.15	21.01	0.00	0.00	2	1.0078175	-64.229127	161.00	11	1.100	0.900
2108	1	2.14	0.61	0.00	0.00	2	1.0034574	-43.026339	161.00	10	1.100	0.900
2109	1	33.81	9.58	0.00	0.00	2	1.0101440	-45.680356	161.00	11	1.100	0.900
2110	1	8.59	2.43	0.00	50.00	2	1.0267109	-61.571094	161.00	11	1.100	0.900
2111	1	13.95	3.95	0.00	0.00	2	0.9972880	-48.280744	161.00	11	1.100	0.900
2112	1	4.54	1.29	0.00	0.00	2	0.9947145	-48.692027	161.00	11	1.100	0.900
2113	1	0.00	0.00	0.00	0.00	2	1.0146776	-55.484008	500.00	11	1.100	0.900
2114	1	70.78	20.05	0.00	0.00	2	1.0123516	-56.768352	161.00	11	1.100	0.900
2115	2	0.00	0.00	0.00	0.00	2	1.0058003	-51.497708	13.80	11	1.100	0.900
2116	2	0.00	0.00	0.00	0.00	2	1.0104469	-53.418599	13.80	11	1.100	0.900
2117	2	0.00	0.00	0.00	0.00	2	1.0030695	-50.859548	13.80	11	1.100	0.900
2118	2	0.00	0.00	0.00	0.00	2	1.0017027	-50.352638	13.80	11	1.100	0.900
2119	2	0.00	0.00	0.00	0.00	2	1.0093676	-52.966962	13.80	11	1.100	0.900
2120	2	0.00	0.00	0.00	0.00	2	1.0100000	-50.598849	13.80	11	1.100	0.900
2121	1	2.33	0.66	0.00	0.00	2	1.0072271	-59.185250	161.00	11	1.100	0.900
2122	1	6.72	1.91	0.00	0.00	2	0.9976371	-60.385456	161.00	11	1.100	0.900
2123	2	0.00	0.00	0.00	0.00	2	1.0294869	-26.338623	161.00	10	1.100	0.900
2124	1	21.29	6.03	0.00	0.00	2	0.9900003	-66.500767	161.00	11	1.100	0.900
2125	1	4.06	1.15	0.00	0.00	2	0.9963519	-66.567445	161.00	11	1.100	0.900
2126	1	14.24	4.03	0.00	0.00	2	1.0126550	-66.258850	161.00	11	1.100	0.900
2127	2	0.00	0.00	0.00	-155.97	2	1.0400000	-33.263916	500.00	10	1.100	0.900
2128	1	0.00	0.00	0.00	0.00	2	1.0303149	-31.773762	161.00	10	1.100	0.900
2129	1	6.63	1.88	0.00	0.00	2	0.9941055	-65.344967	161.00	11	1.100	0.900
2130	1	0.00	0.00	0.00	0.00	2	1.0054570	-41.650955	161.00	10	1.100	0.900
2131	1	0.00	0.00	0.00	0.00	2	1.0006015	-39.083180	115.00	10	1.100	0.900
2132	1	11.94	3.38	0.00	10.00	2	1.0167312	-40.803670	115.00	10	1.100	0.900
2133	1	5.68	1.61	0.00	0.00	2	1.0181787	-59.822033	161.00	11	1.100	0.900
3001	1	0.00	0.00	0.00	0.00	3	1.0137522	-55.282810	230.00	28	1.100	0.900
3002	1	112.86	31.98	0.00	0.00	3	1.0018097	-57.716562	115.00	28	1.100	0.900
3003	1	0.00	0.00	0.00	0.00	3	1.0177929	-17.782176	115.00	27	1.100	0.900
3004	2	0.00	0.00	0.00	0.00	3	1.0129144	-16.192625	18.00	27	1.100	0.900
3005	1	7.34	2.08	0.00	0.00	3	1.0200426	-57.700638	115.00	28	1.100	0.900
3006	1	7.35	2.08	0.00	0.00	3	1.0051829	-26.373510	115.00	27	1.100	0.900
3007	1	14.96	4.24	0.00	0.00	3	1.0156941	-24.211609	115.00	27	1.100	0.900
3008	1	19.81	5.61	0.00	0.00	3	0.9963979	-36.565109	115.00	27	1.100	0.900
3009	1	12.54	3.55	0.00	0.00	3	1.0213663	-30.715016	115.00	28	1.100	0.900
3010	1	4.67	1.32	0.00	0.00	3	1.0025579	-56.650682	115.00	28	1.100	0.900
3011	1	27.14	7.69	0.00	0.00	3	1.0168284	-60.640372	115.00	28	1.100	0.900
3012	1	0.56	0.16	0.00	0.00	3	1.0182381	-60.240765	115.00	28	1.100	0.900
3013	1	64.56	18.29	0.00	65.00	3	1.0188270	-28.042751	115.00	27	1.100	0.900
3014	1	22.00	6.23	0.00	0.00	3	1.0191151	-52.837692	115.00	28	1.100	0.900
3015	1	5.36	1.52	0.00	0.00	3	1.0153213	-16.567717	115.00	27	1.100	0.900
3016	1	0.00	0.00	0.00	0.00	3	1.0118980	-21.476070	115.00	27	1.100	0.900
3017	2	0.00	0.00	0.00	0.00	3	1.0100000	-16.282393	18.00	27	1.100	0.900
3018	1	0.00	0.00	0.00	0.00	3	1.0303324	-28.645989	230.00	27	1.100	0.900
3019	1	0.00	0.00	0.00	40.97	3	1.0300000	-30.245371	115.00	27	1.100	0.900
3020	2	0.00	0.00	0.00	0.00	3	1.0300000	-24.525966	13.80	27	1.100	0.900
3021	1	1.94	0.55	0.00	0.00	3	1.0053296	-35.158687	115.00	27	1.100	0.900
3022	1	24.59	6.97	0.00	0.00	3	0.9988954	-17.660582	115.00	27	1.100	0.900
3023	1	10.41	2.95	0.00	50.00	3	1.0269035	-26.511590	115.00	27	1.100	0.900
3024	1	10.13	2.87	0.00	0.00	3	1.0257853	-30.683475	115.00	28	1.100	0.900
3025	1	13.67	3.87	0.00	0.00	3	0.9989784	-44.930098	115.00	28	1.100	0.900
3026	1	0.00	0.00	0.00	0.00	3	1.0288694	-36.235555	230.00	27	1.100	0.900
3027	1	0.00	0.00	0.00	0.00	3	1.0191571	-36.836469	115.00	27	1.100	0.900
3028	2	0.00	0.00	0.00	0.00	3	1.0400000	-33.651480	18.00	27	1.100	0.900
3029	1	4.87	1.38	0.00	0.00	3	1.0300519	-53.128591	115.00	28	1.100	0.900
3030	1	129.72	36.75	0.00	80.00	3	1.0178432	-39.505377	115.00	27	1.100	0.900
3031	1	14.73	4.17	0.00	0.00	3	1.0005946	-25.729004	115.00	27	1.100	0.900
3032	1	72.86	20.65	0.00	0.00	3	1.0022831	-26.599802	115.00	27	1.100	0.900
3033	1	0.00	0.00	0.00	0.00	3	1.0088987	-14.584929	115.00	27	1.100	0.900
3034	2	0.00	0.00	0.00	0.00	3	1.0300000	-5.318653	22.00	27	1.100	0.900
3035	1	3.46	0.98	0.00	0.00	3	1.0021478	-44.044996	115.00	28	1.100	0.900
3036	1	5.80	1.64	0.00	0.00	3	0.9988507	-41.240298	115.00	28	1.100	0.900
3037	1	0.00	0.00	0.00	0.00	3	1.0274221	-25.022765	230.00	27	1.100	0.900
3038	1	0.00	0.00	0.00	0.00	3	1.0075711	-19.651753	115.00	27	1.100	0.900
3039	2	0.00	0.00	0.00	0.00	3	1.0400000	-22.445804	13.80	27	1.100	0.900
3040	1	14.61	4.14	0.00	0.00	3	0.9971938	-33.865167	115.00	27	1.100	0.900
3041	1	0.00	0.00	0.00	0.00	3	1.0198440	-28.749664	230.00	27	1.100	0.900
3042	1	8.75	2.48	0.00	0.00	3	1.0068723	-18.401847	115.00	27	1.100	0.900
3043	2	0.00	0.00	0.00	0.00	3	1.0198440	-28.749664	13.80	27	1.100	0.900
3044	2	0.00	0.00	0.00	0.00	3	1.0198440	-28.749664	13.80	27	1.100	0.900
3045	2	0.00	0.00	0.00	0.00	3	1.0198440	-28.749664	13.80	27	1.100	0.900
3046	1	0.00	0.00	0.00	200.00	3	1.0162734	-34.158324	230.00	27	1.100	0.900
3047	1	0.00	0.00	0.00	116.31	3	1.0300000	-20.136911	115.00	27	1.100	0.900
3048	2	0.00	0.00	0.00	0.00	3	1.0213188	-41.009059	500.00	27	1.100	0.900
3049	1	10.58	3.00	0.00	0.00	3	1.0065386	-29.508968	115.00	27	1.100	0.900
3050	1	0.00	0.00	0.00	65.00	3	1.0240162	-33.525234	230.00	28	1.100	0.900
3051	1	145.29	41.17	0.00	20.00	3	1.0060490	-35.394537	115.00	28	1.100	0.900
3052	1	8.08	2.29	0.00	0.00	3	1.0062337	-58.108065	115.00	28	1.100	0.900
3053	1	0.00	0.00	0.00	0.00	3	1.0300101	-26.698185	230.00	27	1.100	0.900
3054	1	0.00	0.00	0.00	0.00	3	1.0093835	-26.204923	115.00	27	1.100	0.900
3055	2	0.00	0.00	0.00	0.00	3	1.0400000	-23.813950	13.80	27	1.100	0.900
3056	2	0.00	0.00	0.00	0.00	3	1.0400000	-21.234344	13.80	27	1.100	0.900
3057	2	0.00	0.00	0.00	0.00	3	1.0400000	-21.398950	13.80	27	1.100	0.900
3058	1	0.00	0.00	0.00	0.00	3	1.0320728	-23.514940	230.00	27	1.100	0.900
3059	1	0.00	0.00	0.00	0.00	3	1.0123550	-16.901193	115.00	27	1.100	0.900
3060	2	0.00	0.00	0.00	0.00	3	1.0400000	-15.948213	18.00	27	1.100	0.900
3061	2	0.00	0.00	0.00	0.00	3	1.0400000	-18.119274	18.00	27	1.100	0.900
3062	2	0.00	0.00	0.00	0.00	3	1.0400000	-20.798618	18.00	27	1.100	0.900
3063	2	0.00	0.00	0.00	0.00	3	1.0400000	-19.645586	18.00	27	1.100	0.900
3064	1	0.00	0.00	0.00	0.00	3	1.0215716	-18.054455	115.00	27	1.100	0.900
3065	2	0.00	0.00	0.00	0.00	3	1.0003196	-11.957603	18.00	27	1.100	0.900
3066	1	22.03	6.24	0.00	0.00	3	1.0078627	-42.278824	115.00	28	1.100	0.900
3067	1	0.00	0.00	0.00	0.00	3	1.0281702	-19.346857	115.00	27	1.100	0.900
3068	2	0.00	0.00	0.00	0.00	3	1.0400000	-16.453746	20.00	27	1.100	0.900
3069	1	3.81	1.08	0.00	0.00	3	0.9997071	-29.057884	115.00	27	1.100	0.900
3070	1	0.00	0.00	0.00	0.00	3	1.0198776	-20.639725	115.00	27	1.100	0.900
3071	2	0.00	0.00	0.00	0.00	3	1.0054438	-16.064612	24.00	27	1.100	0.900
3072	1	5.98	1.70	0.00	0.00	3	1.0118016	-38.137390	115.00	27	1.100	0.900
3073	1	0.00	0.00	0.00	0.00	3	1.0040644	-53.799144	115.00	28	1.100	0.900
3074	2	0.00	0.00	0.00	0.00	3	1.0000000	-51.279963	13.80	28	1.100	0.900
3075	1	12.18	3.45	0.00	0.00	3	1.0030532	-39.706325	115.00	28	1.100	0.900
3076	1	10.79	3.06	0.00	0.00	3	1.0012845	-55.254111	115.00	28	1.100	0.900
3077	1	68.65	19.45	0.00	0.00	3	1.0031397	-27.540113	115.00	27	1.100	0.900
3078	1	0.00	0.00	0.00	0.00	3	1.0222879	-25.360613	230.00	27	1.100	0.900
3079	1	0.00	0.00	0.00	0.00	3	1.0185126	-23.588247	161.00	27	1.100	0.900
3080	1	0.00	0.00	0.00	0.00	3	1.0083449	-20.715317	115.00	27	1.100	0.900
3081	2	0.00	0.00	0.00	0.00	3	1.0400000	-19.281323	20.00	27	1.100	0.900
3082	1	0.00	0.00	0.00	0.00	3	1.0209515	-27.544500	230.00	27	1.100	0.900
3083	1	0.00	0.00	0.00	0.00	3	1.0143026	-23.740335	115.00	27	1.100	0.900
3084	2	0.00	0.00	0.00	0.00	3	1.0000000	-17.703954	13.80	27	1.100	0.900
3085	1	0.00	0.00	0.00	0.00	3	1.0070480	-17.986608	115.00	27	1.100	0.900
3086	2	0.00	0.00	0.00	0.00	3	1.0000000	-11.056652	13.20	27	1.100	0.900
3087	2	0.00	0.00	0.00	0.00	3	1.0070480	-17.986608	13.20	27	1.100	0.900
3088	1	0.00	0.00	0.00	126.48	3	1.0300000	-32.734307	230.00	27	1.100	0.900
3089	1	0.00	0.00	0.00	0.00	3	1.0268480	-35.362628	161.00	27	1.100	0.900
3090	1	0.00	0.00	0.00	0.00	3	1.0238339	-36.012125	161.00	27	1.100	0.900
3091	1	0.00	0.00	0.00	65.81	3	1.0200000	-36.894906	115.00	27	1.100	0.900
3092	2	0.00	0.00	0.00	0.00	3	1.0400000	-25.945896	13.80	27	1.100	0.900
3093	1	5.05	1.43	0.00	0.00	3	1.0040672	-57.466955	115.00	28	1.100	0.900
3094	1	0.00	0.00	0.00	0.00	3	1.0161014	-22.776839	115.00	27	1.100	0.900
3095	2	0.00	0.00	0.00	0.00	3	1.0400000	-14.852230	18.00	27	1.100	0.900
3096	1	0.00	0.00	0.00	0.00	3	1.0246424	-20.989326	230.00	27	1.100	0.900
3097	1	0.00	0.00	0.00	0.00	3	1.0203570	-19.148908	115.00	27	1.100	0.900
3098	2	0.00	0.00	0.00	0.00	3	1.0400000	-12.343538	13.80	27	1.100	0.900
3099	1	12.08	3.42	0.00	0.00	3	1.0008848	-28.328564	115.00	27	1.100	0.900
3100	1	8.53	2.42	0.00	0.00	3	1.0014967	-34.419664	115.00	27	1.100	0.900
3101	1	9.43	2.67	0.00	0.00	3	1.0063412	-47.445700	115.00	28	1.100	0.900
3102	1	75.25	21.32	0.00	0.00	3	1.0115869	-37.041325	115.00	27	1.100	0.900
3103	1	39.32	11.14	0.00	0.00	3	1.0100545	-20.214610	115.00	27	1.100	0.900
3104	1	0.00	0.00	0.00	0.00	3	1.0134212	-47.035263	115.00	28	1.100	0.900
3105	2	0.00	0.00	0.00	0.00	3	1.0112517	-41.467023	13.20	28	1.100	0.900
3106	2	0.00	0.00	0.00	0.00	3	1.0045251	-40.438622	13.20	28	1.100	0.900
3107	1	14.87	4.21	0.00	0.00	3	1.0013491	-58.228096	115.00	28	1.100	0.900
3108	1	23.52	6.67	0.00	0.00	3	1.0090167	-56.309106	115.00	28	1.100	0.900
3109	1	0.00	0.00	0.00	0.00	3	1.0203687	-17.767918	115.00	27	1.100	0.900
3110	2	0.00	0.00	0.00	0.00	3	1.0400000	-10.275335	13.80	27	1.100	0.900
3111	1	0.00	0.00	0.00	0.00	3	1.0113524	-16.059429	115.00	27	1.100	0.900
3112	2	0.00	0.00	0.00	0.00	3	1.0000000	-7.911036	18.00	27	1.100	0.900
3113	2	0.00	0.00	0.00	0.00	3	1.0000000	-7.910159	18.00	27	1.100	0.900
3114	1	98.31	27.85	0.00	0.00	3	1.0156612	-33.949071	115.00	27	1.100	0.900
3115	1	9.58	2.71	0.00	0.00	3	1.0067341	-21.455298	115.00	27	1.100	0.900
3116	1	0.00	0.00	0.00	0.00	3	1.0059582	-14.824117	115.00	27	1.100	0.900
3117	2	0.00	0.00	0.00	0.00	3	1.0000000	-11.771197	13.80	27	1.100	0.900
3118	2	0.00	0.00	0.00	0.00	3	1.0000000	-10.801230	13.80	27	1.100	0.900
3119	1	0.00	0.00	0.00	0.00	3	1.0291846	-51.335179	115.00	28	1.100	0.900
3120	2	0.00	0.00	0.00	0.00	3	1.0295665	-49.876500	13.80	28	1.100	0.900
3121	1	0.00	0.00	0.00	0.00	3	1.0177916	-15.996718	115.00	27	1.100	0.900
3122	2	0.00	0.00	0.00	0.00	3	1.0000000	-7.147678	18.00	27	1.100	0.900
3123	1	66.07	18.72	0.00	0.00	3	0.9979133	-56.324041	115.00	28	1.100	0.900
3124	1	64.54	18.29	0.00	45.00	3	1.0296137	-59.198162	115.00	28	1.100	0.900
3125	1	91.26	25.86	0.00	0.00	3	1.0041537	-37.074010	115.00	27	1.100	0.900
3126	1	9.96	2.82	0.00	40.31	3	1.0300000	-56.777897	115.00	28	1.100	0.900
3127	2	0.00	0.00	0.00	0.00	3	1.0188541	-16.038995	115.00	27	1.100	0.900
3128	1	2.82	0.80	0.00	0.00	3	1.0103035	-17.622947	115.00	27	1.100	0.900
3129	2	0.00	0.00	0.00	0.00	3	1.0273949	-16.495710	115.00	27	1.100	0.900
3130	1	92.15	26.11	0.00	0.00	3	1.0088498	-18.697297	115.00	27	1.100	0.900
3131	2	0.00	0.00	0.00	0.00	3	1.0200000	-21.654711	115.00	27	1.100	0.900
3132	1	9.56	2.71	0.00	0.00	3	0.9984496	-39.706202	115.00	28	1.100	0.900
3133	2	0.00	0.00	0.00	0.00	3	1.0209836	-21.630048	230.00	27	1.100	0.900
3134	1	0.00	0.00	0.00	0.00	3	1.0200840	-22.403108	161.00	27	1.100	0.900
3135	1	0.00	0.00	0.00	0.00	3	1.0103079	-18.859723	161.00	27	1.100	0.900
3136	1	46.96	13.30	0.00	0.00	3	1.0030738	-15.179832	115.00	27	1.100	0.900
3137	2	0.00	0.00	0.00	0.00	3	1.0201029	-23.116229	115.00	27	1.100	0.900
3138	1	10.95	3.10	0.00	0.00	3	1.0187589	-38.502156	115.00	28	1.100	0.900
3139	1	14.92	4.23	0.00	0.00	3	0.9936629	-29.126260	115.00	27	1.100	0.900
3140	1	0.22	0.06	0.00	0.00	3	0.9969718	-29.547766	115.00	27	1.100	0.900
3141	2	0.00	0.00	0.00	0.00	3	1.0197277	-17.370168	115.00	27	1.100	0.900
3142	1	7.07	2.00	0.00	30.00	3	1.0268035	-39.680900	115.00	27	1.100	0.900
3143	1	5.75	1.63	0.00	17.00	3	1.0061998	-38.246899	115.00	28	1.100	0.900
3144	1	5.56	1.58	0.00	0.00	3	1.0008314	-39.159841	115.00	28	1.100	0.900
3145	1	2.94	0.83	0.00	0.00	3	1.0094692	-23.268492	115.00	27	1.100	0.900
3146	1	12.04	3.41	0.00	15.00	3	1.0263905	-35.087744	115.00	28	1.100	0.900
3147	1	34.76	9.85	0.00	33.83	3	1.0300000	-55.415768	115.00	28	1.100	0.900
4002	1	1.01	0.29	0.00	0.00	4	1.0201216	-52.403138	115.00	20	1.100	0.900
4003	1	127.29	36.07	0.00	0.00	4	1.0055765	-71.567640	115.00	19	1.100	0.900
4004	1	0.00	0.00	0.00	0.00	4	1.0240135	-55.440663	230.00	20	1.100	0.900
4005	1	164.14	46.51	0.00	70.00	4	1.0222511	-59.602517	115.00	20	1.100	0.900
4006	1	2.75	0.78	0.00	0.00	4	1.0280033	-54.966049	115.00	20	1.100	0.900
4007	1	183.66	52.04	0.00	0.00	4	1.0090030	-72.165208	115.00	19	1.100	0.900
4008	1	32.49	9.21	0.00	0.00	4	0.9962842	-54.271904	115.00	20	1.100	0.900
4009	1	0.00	0.00	0.00	0.00	4	1.0253837	-46.017649	115.00	21	1.100	0.900
4010	2	0.00	0.00	0.00	0.00	4	1.0300000	-43.177056	20.00	21	1.100	0.900
4011	1	16.05	4.55	0.00	0.00	4	1.0203201	-56.916613	115.00	19	1.100	0.900
4012	1	13.74	3.89	0.00	50.00	4	1.0212503	-68.487048	115.00	19	1.100	0.900
4013	1	92.35	26.17	0.00	0.00	4	1.0099494	-70.686703	115.00	19	1.100	0.900
4014	1	0.00	0.00	0.00	0.00	4	1.0261035	-52.407150	230.00	20	1.100	0.900
4015	1	159.81	45.28	0.00	67.76	4	1.0300000	-53.877040	115.00	20	1.100	0.900
4016	1	6.25	1.77	0.00	0.00	4	1.0104583	-49.640029	115.00	20	1.100	0.900
4017	1	89.56	25.38	0.00	0.00	4	1.0099625	-47.893594	115.00	21	1.100	0.900
4018	1	7.14	2.02	0.00	0.00	4	1.0047484	-46.710173	115.00	21	1.100	0.900
4019	1	135.83	38.48	0.00	0.00	4	0.9902030	-66.723817	115.00	19	1.100	0.900
4020	1	117.81	33.38	0.00	0.00	4	0.9848766	-49.756102	115.00	21	1.100	0.900
4021	1	31.97	9.06	0.00	0.00	4	0.9976709	-66.015620	115.00	19	1.100	0.900
4022	1	5.56	1.58	0.00	0.00	4	1.0106148	-59.078746	115.00	20	1.100	0.900
4023	1	5.06	1.43	0.00	0.00	4	1.0106533	-51.754465	115.00	20	1.100	0.900
4024	1	0.00	0.00	0.00	0.00	4	1.0217038	-41.760031	230.00	20	1.100	0.900
4025	1	0.00	0.00	0.00	0.00	4	1.0193025	-45.627821	115.00	20	1.100	0.900
4026	2	0.00	0.00	0.00	0.00	4	1.0300000	-34.346255	13.80	20	1.100	0.900
4027	1	65.12	18.45	0.00	0.00	4	1.0217288	-72.187273	115.00	19	1.100	0.900
4028	1	0.00	0.00	0.00	0.00	4	1.0189575	-33.385244	230.00	21	1.100	0.900
4029	1	0.00	0.00	0.00	0.00	4	1.0189823	-35.338491	115.00	21	1.100	0.900
4030	2	0.00	0.00	0.00	0.00	4	1.0100000	-30.001213	13.80	21	1.100	0.900
4031	1	2.75	0.78	0.00	0.00	4	1.0232216	-57.165982	115.00	20	1.100	0.900
4032	1	91.39	25.89	0.00	0.00	4	0.9870900	-54.493700	115.00	21	1.100	0.900
4033	1	126.25	35.77	0.00	0.00	4	1.0087022	-58.208051	115.00	20	1.100	0.900
4034	1	37.64	10.67	0.00	0.00	4	1.0079157	-70.660078	115.00	19	1.100	0.900
4035	1	79.16	22.43	0.00	0.00	4	0.9868630	-48.204277	115.00	21	1.100	0.900
4036	1	35.07	9.94	0.00	0.00	4	1.0011458	-54.951310	115.00	20	1.100	0.900
4037	1	28.72	8.14	0.00	65.00	4	1.0130683	-48.615474	115.00	21	1.100	0.900
4038	1	83.30	23.60	0.00	0.00	4	0.9978251	-47.990228	115.00	21	1.100	0.900
4039	1	0.00	0.00	0.00	0.00	4	1.0191814	-60.513754	230.00	19	1.100	0.900
4040	1	225.66	63.94	0.00	379.38	4	1.0300000	-64.084015	115.00	19	1.100	0.900